Version 4
SHEET 1 3120 1944
WIRE 1504 96 1472 96
WIRE 80 112 -48 112
WIRE 176 112 80 112
WIRE 592 112 464 112
WIRE 688 112 592 112
WIRE 1504 112 1504 96
WIRE 80 144 80 112
WIRE 592 144 592 112
WIRE -48 160 -48 112
WIRE 464 160 464 112
WIRE 1504 208 1504 192
WIRE 1584 208 1504 208
WIRE 1504 224 1504 208
WIRE -48 304 -48 240
WIRE 80 304 80 224
WIRE 464 304 464 240
WIRE 592 304 592 224
WIRE 1504 336 1504 304
WIRE 48 640 16 640
WIRE 336 640 304 640
WIRE 608 640 560 640
WIRE 608 672 608 640
WIRE 48 688 48 640
WIRE 336 688 336 640
WIRE 48 800 48 752
WIRE 336 800 336 752
WIRE 336 800 48 800
WIRE 608 800 608 768
WIRE 608 800 336 800
WIRE 608 864 608 800
FLAG 80 304 0
FLAG -48 304 0
FLAG 592 304 0
FLAG 464 304 0
FLAG 176 112 noise
IOPIN 176 112 Out
FLAG 688 112 audio
IOPIN 688 112 Out
FLAG 1504 336 0
FLAG 1248 480 audio
IOPIN 1248 480 In
FLAG 1584 208 exemplo
IOPIN 1584 208 Out
FLAG 608 864 0
FLAG 16 640 tweeter
IOPIN 16 640 In
FLAG 304 640 mid
IOPIN 304 640 In
FLAG 560 640 subwoofer
IOPIN 560 640 In
SYMBOL voltage 80 128 R0
SYMATTR InstName V1
SYMATTR Value wavefile="white_noise.wav"
SYMBOL res -64 144 R0
SYMATTR InstName R1
SYMATTR Value 50k
SYMBOL voltage 592 128 R0
SYMATTR InstName V3
SYMATTR Value wavefile="musica_01.wav"
SYMBOL res 448 144 R0
SYMATTR InstName R2
SYMATTR Value 50k
SYMBOL res 1488 208 R0
SYMATTR InstName R3
SYMATTR Value 1k
SYMBOL res 1488 96 R0
SYMATTR InstName R4
SYMATTR Value 1k
SYMBOL MidRange 336 720 R0
WINDOW 38 -16 28 Right 2
SYMATTR SpiceModel DC50FA8
SYMATTR InstName U1
SYMBOL Tweeter 48 720 R0
WINDOW 38 -16 28 Right 2
SYMATTR SpiceModel DC28F4
SYMATTR InstName U2
SYMBOL Woofer 608 720 R0
WINDOW 38 -32 28 Right 2
SYMATTR SpiceModel IB3858
SYMATTR InstName U3
TEXT -56 416 Left 2 !.tran 0 2 0
TEXT 1600 128 Left 2 !.wave "output_test.wav" 16 44.1k V(exemplo)
TEXT -48 -8 Left 2 ;Entradas do circuito:\n- noise (ruído)\n- audio (som com ruído)
TEXT -56 384 Left 2 ;Diretiva de simulação
TEXT -56 480 Left 2 ;Caixas de som:\n- Tweeter (agudos) - Dayton Audio DC28F-4\n- Mid-range (médios) - Dayton Audio DC50FA-8\n- Subwoofer (graves) - Dayton Audio IB385-8
TEXT 1392 -8 Left 2 ;Saida do circuito:\nAudio em formato .wav
TEXT 72 856 Left 2 !.lib "Loudspeaker.lib"
