Version 4
SHEET 1 3128 1944
WIRE 1744 -416 1712 -416
WIRE 1744 -400 1744 -416
WIRE 2448 -400 2416 -400
WIRE 2448 -384 2448 -400
WIRE 1120 -352 1088 -352
WIRE 1120 -336 1120 -352
WIRE 1744 -304 1744 -320
WIRE 1824 -304 1744 -304
WIRE 1744 -288 1744 -304
WIRE 2448 -288 2448 -304
WIRE 2528 -288 2448 -288
WIRE 2448 -272 2448 -288
WIRE 1120 -240 1120 -256
WIRE 1200 -240 1120 -240
WIRE 1120 -224 1120 -240
WIRE 1744 -176 1744 -208
WIRE 2448 -160 2448 -192
WIRE 1120 -112 1120 -144
WIRE 1504 96 1472 96
WIRE 80 112 -48 112
WIRE 176 112 80 112
WIRE 592 112 464 112
WIRE 688 112 592 112
WIRE 1504 112 1504 96
WIRE 80 144 80 112
WIRE 592 144 592 112
WIRE -48 160 -48 112
WIRE 464 160 464 112
WIRE 1504 208 1504 192
WIRE 1584 208 1504 208
WIRE 2336 208 2304 208
WIRE 2432 208 2416 208
WIRE 1504 224 1504 208
WIRE -48 304 -48 240
WIRE 80 304 80 224
WIRE 464 304 464 240
WIRE 592 304 592 224
WIRE 1504 336 1504 304
WIRE 2304 336 2304 208
WIRE 2304 336 2272 336
WIRE 2336 336 2304 336
WIRE 2432 352 2432 208
WIRE 2432 352 2400 352
WIRE 2512 352 2432 352
WIRE 2336 368 2304 368
WIRE 1408 480 1376 480
WIRE 1504 480 1488 480
WIRE 2048 496 2016 496
WIRE 2144 496 2128 496
WIRE 2016 528 2016 496
WIRE 2016 528 1984 528
WIRE 1376 608 1376 480
WIRE 1376 608 1344 608
WIRE 1408 608 1376 608
WIRE 1504 624 1504 480
WIRE 1504 624 1472 624
WIRE 1584 624 1504 624
WIRE 2016 624 2016 528
WIRE 2016 624 1984 624
WIRE 2048 624 2016 624
WIRE 48 640 16 640
WIRE 336 640 304 640
WIRE 608 640 560 640
WIRE 960 640 960 592
WIRE 1088 640 1088 592
WIRE 1408 640 1376 640
WIRE 2144 640 2144 496
WIRE 2144 640 2112 640
WIRE 2224 640 2144 640
WIRE 2048 656 2032 656
WIRE 608 672 608 640
WIRE 48 688 48 640
WIRE 336 688 336 640
WIRE 960 752 960 720
WIRE 1088 752 1088 720
WIRE 48 800 48 752
WIRE 336 800 336 752
WIRE 336 800 48 800
WIRE 608 800 608 768
WIRE 608 800 336 800
WIRE 608 864 608 800
WIRE 32 1168 -32 1168
WIRE 176 1168 96 1168
WIRE 368 1168 176 1168
WIRE 880 1184 816 1184
WIRE 1024 1184 944 1184
WIRE 1104 1184 1024 1184
WIRE 1264 1184 1184 1184
WIRE 1408 1184 1264 1184
WIRE 1760 1184 1728 1184
WIRE 1920 1184 1840 1184
WIRE 2048 1184 1920 1184
WIRE 176 1200 176 1168
WIRE 1024 1216 1024 1184
WIRE 1264 1216 1264 1184
WIRE 1920 1216 1920 1184
WIRE 176 1296 176 1280
WIRE 1264 1296 1264 1280
WIRE 1024 1312 1024 1296
FLAG 80 304 0
FLAG -48 304 0
FLAG 592 304 0
FLAG 464 304 0
FLAG 176 112 noise
IOPIN 176 112 Out
FLAG 688 112 audio
IOPIN 688 112 Out
FLAG 1504 336 0
FLAG 1584 208 exemplo
IOPIN 1584 208 Out
FLAG 608 864 0
FLAG 16 640 tweeter
IOPIN 16 640 In
FLAG 304 640 mid
IOPIN 304 640 In
FLAG 560 640 subwoofer
IOPIN 560 640 In
FLAG 960 752 0
FLAG 960 592 +5
IOPIN 960 592 In
FLAG 1088 752 0
FLAG 1088 592 -5
IOPIN 1088 592 In
FLAG 1440 592 +5
IOPIN 1440 592 In
FLAG 1440 656 -5
IOPIN 1440 656 In
FLAG 1376 640 0
FLAG 1264 608 noise
IOPIN 1264 608 Out
FLAG 1584 624 noise_inv
IOPIN 1584 624 Out
FLAG 2080 608 +5
IOPIN 2080 608 In
FLAG 2080 672 -5
IOPIN 2080 672 In
FLAG 1904 624 noise_inv
IOPIN 1904 624 Out
FLAG 1904 528 audio
IOPIN 1904 528 Out
FLAG 2224 640 output_inv
IOPIN 2224 640 Out
FLAG 1472 96 output
IOPIN 1472 96 Out
FLAG 2032 656 0
FLAG 2368 320 +5
IOPIN 2368 320 In
FLAG 2368 384 -5
IOPIN 2368 384 In
FLAG 2304 368 0
FLAG 2192 336 output_inv
IOPIN 2192 336 Out
FLAG 2512 352 output
IOPIN 2512 352 Out
FLAG 176 1296 0
FLAG 1728 1184 output
IOPIN 1728 1184 Out
FLAG 1920 1296 0
FLAG 2048 1184 outBaixa
IOPIN 2048 1184 Out
FLAG 368 1168 outAlta
IOPIN 368 1168 Out
FLAG 1744 -176 0
FLAG 1824 -304 exemplo2
IOPIN 1824 -304 Out
FLAG 1120 -112 0
FLAG 1200 -240 exemplo1
IOPIN 1200 -240 Out
FLAG 1088 -352 outBaixa
IOPIN 1088 -352 Out
FLAG 2448 -160 0
FLAG 2528 -288 exemplo3
IOPIN 2528 -288 Out
FLAG -32 1168 output
IOPIN -32 1168 Out
FLAG 1024 1312 0
FLAG 816 1184 output
IOPIN 816 1184 Out
FLAG 1264 1296 0
FLAG 1408 1184 outFaixa
IOPIN 1408 1184 Out
FLAG 1712 -416 outFaixa
IOPIN 1712 -416 Out
FLAG 2416 -400 outAlta
IOPIN 2416 -400 Out
SYMBOL voltage 80 128 R0
SYMATTR InstName V1
SYMATTR Value wavefile="white_noise.wav"
SYMBOL res -64 144 R0
SYMATTR InstName R1
SYMATTR Value 50k
SYMBOL voltage 592 128 R0
SYMATTR InstName V3
SYMATTR Value wavefile="musica_01.wav"
SYMBOL res 448 144 R0
SYMATTR InstName R2
SYMATTR Value 50k
SYMBOL res 1488 208 R0
SYMATTR InstName R3
SYMATTR Value 1k
SYMBOL res 1488 96 R0
SYMATTR InstName R4
SYMATTR Value 1k
SYMBOL MidRange 336 720 R0
WINDOW 38 -16 28 Right 2
SYMATTR SpiceModel DC50FA8
SYMATTR InstName U1
SYMBOL Tweeter 48 720 R0
WINDOW 38 -16 28 Right 2
SYMATTR SpiceModel DC28F4
SYMATTR InstName U2
SYMBOL Woofer 608 720 R0
WINDOW 38 -32 28 Right 2
SYMATTR SpiceModel IB3858
SYMATTR InstName U3
SYMBOL OpAmps\\LT1818 1440 624 R0
SYMATTR InstName U4
SYMBOL voltage 960 624 R0
WINDOW 123 0 0 Left 0
WINDOW 39 0 0 Left 0
SYMATTR InstName V2
SYMATTR Value 5
SYMBOL voltage 1088 736 R180
WINDOW 0 24 96 Left 2
WINDOW 3 24 16 Left 2
WINDOW 123 0 0 Left 0
WINDOW 39 0 0 Left 0
SYMATTR InstName V4
SYMATTR Value 5
SYMBOL res 1360 592 R90
WINDOW 0 0 56 VBottom 2
WINDOW 3 32 56 VTop 2
SYMATTR InstName R5
SYMATTR Value 51k
SYMBOL res 1504 464 R90
WINDOW 0 0 56 VBottom 2
WINDOW 3 32 56 VTop 2
SYMATTR InstName R6
SYMATTR Value 10k
SYMBOL OpAmps\\LT1818 2080 640 R0
SYMATTR InstName U5
SYMBOL res 2000 608 R90
WINDOW 0 0 56 VBottom 2
WINDOW 3 32 56 VTop 2
SYMATTR InstName R7
SYMATTR Value 10K
SYMBOL res 2144 480 R90
WINDOW 0 0 56 VBottom 2
WINDOW 3 32 56 VTop 2
SYMATTR InstName R8
SYMATTR Value 10K
SYMBOL res 2000 512 R90
WINDOW 0 0 56 VBottom 2
WINDOW 3 32 56 VTop 2
SYMATTR InstName R9
SYMATTR Value 10K
SYMBOL OpAmps\\LT1818 2368 352 R0
SYMATTR InstName U6
SYMBOL res 2288 320 R90
WINDOW 0 0 56 VBottom 2
WINDOW 3 32 56 VTop 2
SYMATTR InstName R12
SYMATTR Value 51k
SYMBOL res 2432 192 R90
WINDOW 0 0 56 VBottom 2
WINDOW 3 32 56 VTop 2
SYMATTR InstName R13
SYMATTR Value 51k
SYMBOL cap 32 1152 M90
WINDOW 0 0 32 VBottom 2
WINDOW 3 32 32 VTop 2
SYMATTR InstName C2
SYMATTR Value 10n
SYMBOL res 160 1184 R0
SYMATTR InstName R10
SYMATTR Value 8k
SYMBOL ind 1856 1168 R90
WINDOW 0 5 56 VBottom 2
WINDOW 3 32 56 VTop 2
SYMATTR InstName L1
SYMATTR Value 2.54
SYMBOL res 1904 1200 R0
SYMATTR InstName R17
SYMATTR Value 8k
SYMBOL res 1728 -304 R0
SYMATTR InstName R18
SYMATTR Value 1k
SYMBOL res 1728 -416 R0
SYMATTR InstName R19
SYMATTR Value 1k
SYMBOL res 1104 -240 R0
SYMATTR InstName R20
SYMATTR Value 1k
SYMBOL res 1104 -352 R0
SYMATTR InstName R21
SYMATTR Value 1k
SYMBOL res 2432 -288 R0
SYMATTR InstName R22
SYMATTR Value 1k
SYMBOL res 2432 -400 R0
SYMATTR InstName R23
SYMATTR Value 1k
SYMBOL cap 880 1168 M90
WINDOW 0 0 32 VBottom 2
WINDOW 3 32 32 VTop 2
SYMATTR InstName C4
SYMATTR Value 32n
SYMBOL res 1008 1200 R0
SYMATTR InstName R24
SYMATTR Value 10k
SYMBOL cap 1248 1216 R0
SYMATTR InstName C5
SYMATTR Value 8n
SYMBOL res 1200 1168 R90
WINDOW 0 0 56 VBottom 2
WINDOW 3 32 56 VTop 2
SYMATTR InstName R25
SYMATTR Value 10k
TEXT -56 416 Left 2 !.tran 0 2 0
TEXT 1600 128 Left 2 !.wave "output_test.wav" 16 44.1k V(exemplo)
TEXT -48 -8 Left 2 ;Entradas do circuito:\n- noise (ruído)\n- audio (som com ruído)
TEXT -56 384 Left 2 ;Diretiva de simulação
TEXT -56 480 Left 2 ;Caixas de som:\n- Tweeter (agudos) - Dayton Audio DC28F-4\n- Mid-range (médios) - Dayton Audio DC50FA-8\n- Subwoofer (graves) - Dayton Audio IB385-8
TEXT 1392 -8 Left 2 ;Saida do circuito:\nAudio em formato .wav
TEXT 72 856 Left 2 !.lib "Loudspeaker.lib"
TEXT -200 1072 Left 2 ;Filtro Passa alta
TEXT -160 1336 Left 2 ;frequência de corte aproximadamente 2000 Hz
TEXT 2016 1344 Left 2 ;Freq de corte 500 Hz
TEXT 1600 1048 Left 2 ;Filtro Passa baixa
TEXT 1632 -520 Left 2 ;Saida do circuito:\nAudio em formato .wav
TEXT 1008 -456 Left 2 ;Saida do circuito:\nAudio em formato .wav
TEXT 2336 -504 Left 2 ;Saida do circuito:\nAudio em formato .wav
TEXT 1200 -176 Left 2 !.wave "output_test_baixo.wav" 16 44.1k V(exemplo1)
TEXT 1808 -192 Left 2 !.wave "output_test_faixa.wav" 16 44.1k V(exemplo2)
TEXT 2512 -184 Left 2 !.wave "output_test_alta.wav" 16 44.1k V(exemplo3)
TEXT 1016 1368 Left 2 ;Freq de corte 500 Hz e 2000 Hz
TEXT 768 1032 Left 2 ;Filtro Passa banda
